iidm/iidm-serde/src/test/resources/V1_18/reactive-limit-inverted-minq-maxq.xiidm
<iidm:network xmlns:iidm="http://www.powsybl.org/schema/iidm/1_18" id="ReactiveLimits" sourceFormat="test" caseDate="2025-07-29T10:00:00.000+02:00" forecastDistance="0" minimumValidationLevel="STEADY_STATE_HYPOTHESIS">
    <iidm:substation id="S" country="FR" tso="RTE">
        <iidm:voltageLevel id="VL" nominalV="380.0" topologyKind="BUS_BREAKER">
            <iidm:busBreakerTopology>
                <iidm:bus id="B"/>
            </iidm:busBreakerTopology>
            <iidm:generator id="G1" energySource="OTHER" maxP="10.0" minP="0.0" localTargetV="380.0" targetP="10.0" bus="B" connectableBus="B">
                <iidm:reactiveCapabilityCurve>
                    <iidm:point p="5.0" minQ="1.0" maxQ="10.0"/>
                    <iidm:point p="10.0" minQ="10.0" maxQ="2.0"/>
                </iidm:reactiveCapabilityCurve>
                <iidm:voltageRegulation mode="VOLTAGE" regulating="true"/>
            </iidm:generator>
            <iidm:generator id="G2" energySource="OTHER" maxP="10.0" minP="0.0" localTargetV="380.0" targetP="10.0" bus="B" connectableBus="B">
                <iidm:minMaxReactiveLimits minQ="1.0" maxQ="10.0"/>
                <iidm:voltageRegulation mode="VOLTAGE" regulating="true"/>
            </iidm:generator>
        </iidm:voltageLevel>
    </iidm:substation>
</iidm:network>